7

   C      1.106103      0.068466      0.035582
   C      2.423757      0.068450      0.035522
   C      3.742300      0.068430      0.035525
   H      0.554976      0.189737      0.949118
   H      0.555022     -0.052771     -0.878009
   H      4.293211     -0.845064      0.159107
   H      4.293192      0.981920     -0.088160
